Version 4
SHEET 1 980 680
WIRE 400 240 176 240
WIRE 544 240 464 240
WIRE 704 240 544 240
WIRE 848 240 784 240
WIRE 912 240 848 240
WIRE 544 272 544 240
WIRE 848 288 848 240
WIRE 176 304 176 240
WIRE 400 384 320 384
WIRE 544 384 544 352
WIRE 544 384 464 384
WIRE 704 384 544 384
WIRE 848 384 848 352
WIRE 848 384 784 384
WIRE 912 384 848 384
WIRE 176 480 176 384
WIRE 320 480 320 384
WIRE 320 480 176 480
WIRE 176 496 176 480
FLAG 176 496 0
SYMBOL voltage 176 288 R0
SYMATTR InstName V1
SYMATTR Value SINE(1 1 8000 0 0 0 10)
SYMBOL res 800 224 R90
WINDOW 0 0 56 VBottom 2
WINDOW 3 32 56 VTop 2
SYMATTR InstName R1
SYMATTR Value 301
SYMBOL res 800 368 R90
WINDOW 0 0 56 VBottom 2
WINDOW 3 32 56 VTop 2
SYMATTR InstName R2
SYMATTR Value 301
SYMBOL res 560 368 R180
WINDOW 0 36 76 Left 2
WINDOW 3 36 40 Left 2
SYMATTR InstName R3
SYMATTR Value 1100
SYMBOL cap 464 224 R90
WINDOW 0 0 32 VBottom 2
WINDOW 3 32 32 VTop 2
SYMATTR InstName C1
SYMATTR Value 100n
SYMBOL cap 464 368 R90
WINDOW 0 0 32 VBottom 2
WINDOW 3 32 32 VTop 2
SYMATTR InstName C2
SYMATTR Value 100n
SYMBOL cap 864 352 R180
WINDOW 0 24 56 Left 2
WINDOW 3 24 8 Left 2
SYMATTR InstName C3
SYMATTR Value 4800p
TEXT 168 136 Left 2 !.tran 0 10mS 0
